Circuit: * C:\Users\theod\Desktop\ENIB\Cours\Electronique\S1\Projet 2020\VF\Ensemble_VCO.asc

Per .tran options, skipping operating point for transient analysis.

Date: Thu Dec 16 21:35:55 2021
Total elapsed time: 0.210 seconds.

tnom = 27
temp = 27
method = modified trap
totiter = 9318
traniter = 9318
tranpoints = 2950
accept = 2351
rejected = 599
matrix size = 79
fillins = 179
solver = Normal
Thread vector: 7.1/4.3[2] 2.3/2.0[2] 1.2/2.5[1] 0.4/1.3[1]  2592/500
Matrix Compiler1: 13.94 KB object code size  4.3/1.4/[0.8]
Matrix Compiler2: 9.95 KB object code size  1.1/1.1/[0.6]

