Circuit: * C:\Users\theod\Desktop\ENIB\Cours\Electronique\S2\Projet elec\ProjetFinal\dossier_simulation_ADSR_S2P\ADSR_S2P_2021_Final.asc

R15: both pins shorted together -- ignoring.
Unknown node in .ic card: "c1" -- ignoring
Unknown node in .ic card: "cout" -- ignoring
Per .tran options, skipping operating point for transient analysis.
Ignoring empty pin current: Ix(1:1)
Ignoring empty pin current: Ix(1:2)
Ignoring empty pin current: Ix(1:3)
Ignoring empty pin current: Ix(1:4)
Ignoring empty pin current: Ix(2:1)
Ignoring empty pin current: Ix(2:2)
Ignoring empty pin current: Ix(2:3)
Ignoring empty pin current: Ix(2:4)
Ignoring empty pin current: Ix(u3:vcc)
Ignoring empty pin current: Ix(u5:vcc)
Ignoring empty pin current: Ix(u8:vcc)
Ignoring empty pin current: Ix(u9:vcc)
Ignoring empty pin current: Ix(u1:vcc)
Ignoring empty pin current: Ix(u4:ctrl_a)
Ignoring empty pin current: Ix(u6:ctrl_a)
Ignoring empty pin current: Ix(u7:ctrl_a)
Ignoring empty pin current: Ix(u10:ctrl_a)
Ignoring empty pin current: Ix(u15:1)
Ignoring empty pin current: Ix(u15:2)
Ignoring empty pin current: Ix(u15:3)
Ignoring empty pin current: Ix(u15:4)
Ignoring empty pin current: Ix(u15:5)
Ignoring empty pin current: Ix(u15:6)
Ignoring empty pin current: Ix(u15:8)

Date: Fri Dec 17 10:27:07 2021
Total elapsed time: 8.498 seconds.

tnom = 27
temp = 27
method = modified trap
totiter = 39762
traniter = 39762
tranpoints = 18613
accept = 17914
rejected = 699
matrix size = 449
fillins = 479
solver = Normal
Thread vector: 65.0/29.0[4] 14.5/11.2[4] 6.7/3.5[4] 1.9/5.4[1]  2592/500
Matrix Compiler1: 60.10 KB object code size  16.0/8.9/[2.8]
Matrix Compiler2: 44.74 KB object code size  6.4/7.7/[2.0]

