Circuit: * C:\Users\theod\Desktop\ENIB\Cours\Electronique\S2\Projet elec\ProjetFinal\dossier_simulation_ADSR_S2P\Draft1.asc

.OP point found by inspection.

Date: Mon Jan 31 14:56:06 2022
Total elapsed time: 0.046 seconds.

tnom = 27
temp = 27
method = modified trap
totiter = 2104
traniter = 2104
tranpoints = 1042
accept = 1042
rejected = 0
matrix size = 3
fillins = 0
solver = Normal
Matrix Compiler1: 86 bytes object code size  0.0/0.0/[0.0]
Matrix Compiler2: off  [0.0]/0.0/0.0

