Circuit: * C:\Users\theod\Desktop\ENIB\Cours\Electronique\S2\Projet elec\ProjetFinal\dossier_simulation_ADSR_S2P\Draft2.asc

Direct Newton iteration for .op point succeeded.

Date: Wed Mar 02 19:25:22 2022
Total elapsed time: 0.057 seconds.

tnom = 27
temp = 27
method = trap
totiter = 3
traniter = 0
tranpoints = 0
accept = 0
rejected = 0
matrix size = 5
fillins = 0
solver = Normal
Matrix Compiler1: 114 bytes object code size
Matrix Compiler2: 301 bytes object code size
